# File generated by Flopy version 3.3.3 on 06/03/2021 at 21:40:26.
BEGIN options
END options

BEGIN timing
  TDIS6  test.tdis
END timing

BEGIN models
  gwf6  test.nam  test
END models

BEGIN exchanges
END exchanges

BEGIN solutiongroup  1
  ims6  test.ims  test
END solutiongroup  1

