# File generated by Flopy version 3.3.3 on 06/03/2021 at 21:40:26.
BEGIN options
  BUDGET  FILEOUT  test.cbb
  HEAD  FILEOUT  test.hds
  HEAD  PRINT_FORMAT  COLUMNS  10  WIDTH  15  DIGITS  6  GENERAL
END options

BEGIN period  1
  SAVE  HEAD  LAST
  SAVE  BUDGET  LAST
  PRINT  HEAD  LAST
  PRINT  BUDGET  LAST
END period  1

