# File generated by Flopy version 3.3.3 on 06/03/2021 at 21:40:26.
BEGIN options
  TIME_UNITS  days
END options

BEGIN dimensions
  NPER  2
END dimensions

BEGIN perioddata
       0.00000000  1       1.00000000
       1.00000000  10       1.00000000
END perioddata

