# File generated by Flopy version 3.3.3 on 06/03/2021 at 21:40:26.
BEGIN options
END options

BEGIN dimensions
  NLAY  1
  NCPL  1861
  NVERT  3779
END dimensions

BEGIN griddata
  top
    CONSTANT     100.00000000
  botm
    CONSTANT       0.00000000
END griddata

BEGIN vertices
  1  2.21159399E+05    8655.26500000
  2  2.26714262E+05    7039.48910000
  3  2.23839119E+05    6330.65720000
  4  2.23163201E+05    7494.51400000
  5  2.25311997E+05    6908.39300000
  6  2.24765648E+05    5869.83320000
  7  2.13443357E+05    5440.66160000
  8  2.20017877E+05    5418.02570000
  9  2.11629610E+05    6279.10690000
  10  2.26600895E+05    6962.35820000
  11  2.28600514E+05    8564.73800000
  12  2.28520074E+05    8029.38890000
  13  2.23910445E+05    5682.98230000
  14  2.08775402E+05    7475.69800000
  15  2.25317905E+05    6908.20090000
  16  2.26891519E+05    7907.06690000
  17  2.28293773E+05    8769.07510000
  18  2.10723504E+05    7108.09580000
  19  2.24717348E+05    6357.94660000
  20  2.24367341E+05    6491.47440000
  21  2.16187500E+05    -142.49010000
  22  2.16393799E+05    4972.30950000
  23  2.24217782E+05    8851.37590000
  24  2.22729305E+05    5181.59560000
  25  2.25484522E+05    7029.75240000
  26  2.27796931E+05    8885.76070000
  27  2.13133865E+05   10691.87340000
  28  2.27833791E+05    8474.87890000
  29  2.20215119E+05    9248.79770000
  30  2.30000000E+05    1437.50000000
  31  2.26285027E+05    8496.74750000
  32  2.24195597E+05    6459.26950000
  33  2.16698350E+05    6792.16540000
  34  2.24111883E+05    6344.36330000
  35  2.17541938E+05   10448.45050000
  36  2.25125000E+05     -14.15140000
  37  2.26946475E+05    6426.56580000
  38  2.21142455E+05    8943.46970000
  39  2.24236886E+05    5877.00450000
  40  2.13636387E+05    5576.77590000
  41  2.19923531E+05    5317.19690000
  42  2.25900662E+05    8586.14260000
  43  2.26879822E+05    7042.39330000
  44  2.08074959E+05    7721.13900000
  45  2.23635378E+05    5944.79640000
  46  2.17709625E+05    4473.71980000
  47  2.22533729E+05    5147.28990000
  48  2.27718036E+05    7125.55280000
  49  2.28412811E+05    8949.84420000
  50  2.13748332E+05    7114.00340000
  51  2.28163953E+05    8762.79610000
  52  2.08387232E+05    6397.45280000
  53  2.28311881E+05    8807.69110000
  54  2.24848809E+05    5790.27550000
  55  2.25444566E+05    8305.60230000
  56  2.21094831E+05    8699.35630000
  57  2.27652664E+05    7264.75700000
  58  2.16230380E+05    7095.11050000
  59  2.24845005E+05    6556.84450000
  60  2.27353576E+05    7370.87630000
  61  2.27637411E+05    8823.07670000
  62  2.28376838E+05    8106.44990000
  63  2.25174909E+05    6554.07490000
  64  2.26110708E+05    8452.32680000
  65  2.27241106E+05    7245.39630000
  66  2.25413387E+05    6405.15370000
  67  2.20488794E+05    5050.92940000
  68  2.27229607E+05    7008.00310000
  69  2.16760838E+05    5831.57170000
  70  2.25340063E+05    5877.94090000
  71  2.17510064E+05    4594.37840000
  72  2.28515382E+05    8114.72220000
  73  2.07569105E+05    7954.73410000
  74  2.26162085E+05    5477.83500000
  75  2.26290698E+05    6126.52630000
  76  2.29460222E+05    8204.01560000
  77  2.28635305E+05    7976.20230000
  78  2.22155385E+05    7326.19490000
  79  2.25863110E+05    6504.36150000
  80  2.19103028E+05    5773.37090000
  81  2.25616333E+05    6541.79060000
  82  2.23735795E+05    6492.71210000
  83  2.28819445E+05    8918.38340000
  84  2.23549320E+05    6543.64660000
  85  2.23519439E+05    6533.40130000
  86  2.18396214E+05    5122.62890000
  87  2.23286764E+05    6204.77780000
  88  2.08743400E+05    7930.81650000
  89  2.23276246E+05    6021.67980000
  90  2.18629329E+05    5736.24280000
  91  2.23329639E+05    6692.44280000
  92  2.26108270E+05    8036.99160000
  93  2.21089029E+05    5193.36940000
  94  2.23369146E+05    6837.82720000
  95  2.23480236E+05    6884.14680000
  96  2.28064997E+05    8701.32740000
  97  2.17970479E+05    5065.99640000
  98  2.23601716E+05    6789.60300000
  99  2.10604833E+05    6856.44040000
  100  2.29147834E+05    5001.82140000
  101  2.17862256E+05    5103.48020000
  102  2.25958840E+05    6825.52620000
  103  2.13495188E+05    6059.69900000
  104  2.15234749E+05    5299.16450000
  105  2.26067352E+05    6896.22390000
  106  2.13144612E+05    5474.88360000
  107  2.26226448E+05    6874.22000000
  108  2.26458093E+05    6645.61280000
  109  2.10153376E+05    5487.28330000
  110  2.20668905E+05    7874.09790000
  111  2.12771395E+05   11023.16850000
  112  2.26504770E+05    6360.28070000
  113  2.17304012E+05    5250.75650000
  114  2.21458151E+05    7687.17900000
  115  2.12880720E+05    5518.18000000
  116  2.25722881E+05    7001.76590000
  117  2.15156253E+05    5231.39170000
  118  2.25891692E+05    7142.90000000
  119  2.21231702E+05    7967.68580000
  120  2.18335215E+05   10702.39260000
  121  2.26022026E+05    7098.91530000
  122  2.12974732E+05    5697.67250000
  123  2.25583859E+05    6686.32050000
  124  2.15304073E+05    5516.77590000
  125  2.25682168E+05    6980.53650000
  126  2.17036144E+05    5637.90790000
  127  2.13290462E+05    5283.61260000
  128  2.25714411E+05    7001.53370000
  129  2.13011834E+05    5464.15230000
  130  2.17396091E+05    5807.75720000
  131  2.23908054E+05    6726.54410000
  132  2.26265192E+05    8305.63500000
  133  2.25393478E+05    3376.85940000
  134  2.23724433E+05    6850.09710000
  135  2.21425464E+05    8622.28480000
  136  2.23953638E+05    6736.58190000
  137  2.10822347E+05    6291.20710000
  138  2.24054407E+05    6701.71930000
  139  2.15753149E+05    3590.29200000
  140  2.10443336E+05    6612.46570000
  141  2.12234236E+05   10715.71050000
  142  2.24245024E+05    6892.64800000
  143  2.26660825E+05    2556.16160000
  144  2.21274466E+05    8726.86650000
  145  2.24392912E+05    6776.26270000
  146  2.12893634E+05    5663.05340000
  147  2.12128773E+05    8136.30830000
  148  2.24825110E+05    6674.91650000
  149  2.24670957E+05    7908.16460000
  150  2.27508657E+05    3645.65330000
  151  2.21227543E+05    8503.41990000
  152  2.22811915E+05    8553.58760000
  153  2.24687565E+05    6795.73440000
  154  2.24500351E+05    6822.60830000
  155  2.14197033E+05    4518.04680000
  156  2.24918043E+05    6847.66880000
  157  2.28375000E+05      39.01880000
  158  2.21247785E+05    8850.21210000
  159  2.25097358E+05    6930.20750000
  160  2.12919487E+05    5807.29520000
  161  2.16951152E+05    6505.35730000
  162  2.25271327E+05    6885.25190000
  163  2.12951221E+05    5910.60130000
  164  2.12852769E+05   12196.88980000
  165  2.27010842E+05    6934.89200000
  166  2.16169559E+05    7364.30630000
  167  2.16301139E+05    7138.50330000
  168  2.27436171E+05    6915.92440000
  169  2.27114555E+05    6355.33110000
  170  2.22223699E+05    2986.19640000
  171  2.13425335E+05    7844.02370000
  172  2.20417578E+05    5516.70830000
  173  2.27471763E+05    6532.97480000
  174  2.24143992E+05    8292.85190000
  175  2.28151304E+05    8044.24410000
  176  2.21170389E+05    9050.78390000
  177  2.16184280E+05    7128.34680000
  178  2.20652647E+05    6836.79240000
  179  2.28299667E+05    8036.42930000
  180  2.21202790E+05    4570.70640000
  181  2.28333524E+05    7951.16060000
  182  2.09572478E+05    7882.68660000
  183  2.16221127E+05    7394.06550000
  184  2.28290507E+05    7859.28340000
  185  2.21371539E+05    3224.57870000
  186  2.08001660E+05    7066.05530000
  187  2.21614090E+05    5486.53190000
  188  2.13825011E+05   11664.25100000
  189  2.28137667E+05    7929.99150000
  190  2.25937909E+05    8526.39300000
  191  2.17658705E+05    5249.48500000
  192  2.17691670E+05    5311.84650000
  193  2.17655457E+05    5346.34680000
  194  2.24379920E+05    8264.20990000
  195  2.10064610E+05    6883.86890000
  196  2.19940728E+05    6205.49720000
  197  2.17608160E+05    5301.73300000
  198  2.07914590E+05    7938.33600000
  199  2.19371060E+05    5587.15050000
  200  2.18355410E+05    4760.03510000
  201  2.17620122E+05    5257.76370000
  202  2.24916262E+05    8319.60720000
  203  2.21875000E+05    -500.00000000
  204  2.18396804E+05    5194.82430000
  205  2.17694963E+05    5214.94250000
  206  2.17737948E+05    5262.59170000
  207  2.13061137E+05    4899.01350000
  208  2.25687430E+05    7925.64780000
  209  2.28156804E+05    9652.64140000
  210  2.20846644E+05    5299.79390000
  211  2.23022205E+05    8017.31030000
  212  2.17723508E+05    5305.01520000
  213  2.18723461E+05    5116.65950000
  214  2.17566097E+05    5315.85880000
  215  2.17111313E+05    6218.07730000
  216  2.17554709E+05    5363.64670000
  217  2.28330759E+05    8899.96270000
  218  2.19180520E+05    5107.02840000
  219  2.07447407E+05    7749.17830000
  220  2.17471401E+05    5388.71500000
  221  2.17425417E+05    5318.36550000
  222  2.22835549E+05    7446.50830000
  223  2.17509696E+05    5269.41400000
  224  2.24046399E+05    7919.42340000
  225  2.23048133E+05   10655.45730000
  226  2.17999853E+05    4951.43320000
  227  2.21344743E+05    8634.33470000
  228  2.17300474E+05    5423.82670000
  229  2.17287116E+05    5341.26310000
  230  2.17311972E+05    5279.38110000
  231  2.17471824E+05    5463.75890000
  232  2.18024748E+05    5436.61450000
  233  2.17386256E+05    5490.25990000
  234  2.25143202E+05    7976.64100000
  235  2.21476723E+05    9449.09500000
  236  2.18482600E+05    5257.74600000
  237  2.27356291E+05    5594.31820000
  238  2.27509255E+05    8668.26570000
  239  2.26543699E+05    5059.04990000
  240  2.16690128E+05    7459.40570000
  241  2.29070522E+05    7882.53200000
  242  2.19110208E+05    5335.94790000
  243  2.12320163E+05    7615.12230000
  244  2.26285516E+05    5150.16720000
  245  2.22515223E+05    7111.81950000
  246  2.23854613E+05    5187.58920000
  247  2.23235227E+05    5995.44380000
  248  2.23178462E+05    5884.93270000
  249  2.16465059E+05   10857.88480000
  250  2.19242723E+05    5581.79560000
  251  2.23272249E+05    5300.48260000
  252  2.27637359E+05    8636.06710000
  253  2.24094872E+05    4760.64530000
  254  2.24731029E+05    4905.33430000
  255  2.28188837E+05    8897.73140000
  256  2.23850399E+05    4338.32270000
  257  2.25449351E+05    4523.78500000
  258  2.27312507E+05    8567.57970000
  259  2.15689023E+05    6183.09820000
  260  2.19690176E+05    5773.74850000
  261  2.22780611E+05    5686.50420000
  262  2.22397656E+05    5951.15340000
  263  2.22996097E+05    8246.92310000
  264  2.23929742E+05    7096.67200000
  265  2.16299122E+05    7208.03720000
  266  2.22452361E+05    6048.63200000
  267  2.22793620E+05    6197.50470000
  268  2.13077030E+05    7435.43600000
  269  2.16213936E+05    7302.53010000
  270  2.22487641E+05    8573.07640000
  271  2.20034922E+05    5623.49800000
  272  2.13226970E+05   12028.12900000
  273  2.19988632E+05    5530.69680000
  274  2.16477807E+05    7118.88500000
  275  2.19830221E+05    5618.17970000
  276  2.21742262E+05    4633.56930000
  277  2.19883655E+05    5680.18480000
  278  2.10885263E+05    6995.11150000
  279  2.19816384E+05    5817.47480000
  280  2.19984809E+05    5691.00670000
  281  2.21932901E+05    6644.50970000
  282  2.15632368E+05    7010.73450000
  283  2.16171948E+05    7278.50940000
  284  2.09414387E+05    7173.64970000
  285  2.22288245E+05    5897.87680000
  286  2.23500000E+05    -500.00000000
  287  2.21918621E+05    6071.43990000
  288  2.06282075E+05   12883.43050000
  289  2.15598201E+05    6979.45130000
  290  2.16158713E+05    7411.22750000
  291  2.21914720E+05    6223.92740000
  292  2.22073260E+05    6451.92150000
  293  2.14480995E+05    5229.01700000
  294  2.19140163E+05    9588.46780000
  295  2.19821820E+05    5615.42620000
  296  2.16246362E+05    7289.76640000
  297  2.22204058E+05    6491.86790000
  298  2.15284898E+05    5710.23790000
  299  2.22386584E+05    6413.76500000
  300  2.15918917E+05    7469.72830000
  301  2.13903513E+05    5497.39950000
  302  2.21701846E+05    6517.77490000
  303  2.12992162E+05    5795.92530000
  304  2.20907141E+05    5684.15980000
  305  2.20777004E+05    5852.51120000
  306  2.20785944E+05    5882.78220000
  307  2.16433888E+05    6507.55500000
  308  2.20938584E+05    5974.06330000
  309  2.18350059E+05    4108.14340000
  310  2.22797206E+05    6601.18260000
  311  2.21122293E+05    5838.85120000
  312  2.21086484E+05    5743.59650000
  313  2.27527737E+05    8866.91120000
  314  2.15791567E+05    4911.93590000
  315  2.22396416E+05    6765.20850000
  316  2.20432168E+05   10756.57680000
  317  2.20663384E+05    5812.53130000
  318  2.20579375E+05    5653.10500000
  319  2.28281972E+05    9071.78420000
  320  2.13807958E+05    6774.53950000
  321  2.19169062E+05    6250.00480000
  322  2.07732907E+05    7870.10710000
  323  2.21941299E+05    6665.36190000
  324  2.20808202E+05    5531.38170000
  325  2.16119728E+05    7398.90920000
  326  2.19447277E+05    6142.42590000
  327  2.17977565E+05    5080.82540000
  328  2.18941834E+05    4738.59780000
  329  2.17955224E+05    5243.43780000
  330  2.22150851E+05    6757.02890000
  331  2.20112206E+05    7071.99050000
  332  2.17959491E+05    5250.82850000
  333  2.18055522E+05    5229.47570000
  334  2.16080124E+05    7112.89480000
  335  2.18074911E+05    5147.26750000
  336  2.13181172E+05    7536.58220000
  337  2.28441407E+05    8806.02860000
  338  2.23510571E+05    7110.62060000
  339  2.18157981E+05    5135.92720000
  340  2.13885756E+05    6250.32180000
  341  2.17948596E+05    4652.70310000
  342  2.18179222E+05    5152.59420000
  343  2.18124525E+05    5285.50610000
  344  2.10197264E+05    7797.65300000
  345  2.20178046E+05   10121.11480000
  346  2.23734998E+05    7007.20600000
  347  2.22279604E+05    7138.12000000
  348  2.18128639E+05    5299.72320000
  349  2.13189587E+05    8560.74130000
  350  2.15353899E+05    5420.23310000
  351  2.18020707E+05    5351.99730000
  352  2.11599661E+05   11975.35390000
  353  2.17955798E+05    5295.47400000
  354  2.18193157E+05    5154.21080000
  355  2.26972790E+05    8151.41140000
  356  2.29498348E+05    6281.25000000
  357  2.23299575E+05    7062.98700000
  358  2.15388211E+05    6684.97270000
  359  2.21591241E+05    7131.10390000
  360  2.18255269E+05    5223.71920000
  361  2.18225590E+05    5296.96800000
  362  2.27079035E+05    8366.26630000
  363  2.28500512E+05    8606.62930000
  364  2.26336258E+05    7170.07360000
  365  2.18133182E+05    5303.28800000
  366  2.18095082E+05    7032.97310000
  367  2.17570107E+05    4960.37160000
  368  2.18333995E+05    5329.16040000
  369  2.16902875E+05    6773.33560000
  370  2.18267666E+05    5343.74150000
  371  2.18371073E+05    5215.41370000
  372  2.10152234E+05    7333.51490000
  373  2.17235027E+05    5512.99480000
  374  2.28452880E+05    8775.98660000
  375  2.26622613E+05    7274.02080000
  376  2.17086745E+05    5501.17640000
  377  2.17746867E+05    4921.58190000
  378  2.17069917E+05    5416.14390000
  379  2.17062410E+05    5054.53590000
  380  2.17879321E+05    5353.38510000
  381  2.15568257E+05    4862.82280000
  382  2.11414035E+05   12162.53880000
  383  2.07628004E+05    7701.08780000
  384  2.25864589E+05    7287.38120000
  385  2.16713762E+05    7101.29730000
  386  2.17868635E+05    5212.36210000
  387  2.17813489E+05    5239.79450000
  388  2.22370196E+05    7779.94830000
  389  2.19437500E+05     -23.68480000
  390  2.23537976E+05    7210.56200000
  391  2.06266859E+05   12577.19910000
  392  2.13744967E+05    3843.15770000
  393  2.16228527E+05    7361.76120000
  394  2.11389326E+05    7189.60040000
  395  2.17810967E+05    5245.86010000
  396  2.17048756E+05    5047.06850000
  397  2.17833877E+05    5341.72110000
  398  2.17782476E+05    5368.21230000
  399  2.17609459E+05    5415.29080000
  400  2.15810209E+05    7521.09490000
  401  2.16147303E+05    5909.95870000
  402  2.17656178E+05    5391.00430000
  403  2.19119818E+05    2924.32780000
  404  2.17135057E+05    6302.43980000
  405  2.24634366E+05    7113.26410000
  406  2.17743320E+05    5432.78790000
  407  2.17582278E+05    5475.98970000
  408  2.14725767E+05    5823.97360000
  409  2.28106356E+05    6100.87690000
  410  2.13044410E+05    5768.07140000
  411  2.24703388E+05    8725.96070000
  412  2.17506644E+05    5489.27500000
  413  2.11148877E+05    7113.21790000
  414  2.24471039E+05    7042.81110000
  415  2.13039544E+05    5710.06450000
  416  2.17282255E+05    5616.23390000
  417  2.17371167E+05    5565.09460000
  418  2.18375130E+05    1141.31300000
  419  2.13010239E+05   11856.38030000
  420  2.17504652E+05    5586.45200000
  421  2.17394661E+05    6054.13880000
  422  2.24997227E+05    7192.25910000
  423  2.20658276E+05    7610.56300000
  424  2.12967935E+05   12022.15220000
  425  2.17445604E+05    5618.67590000
  426  2.20625435E+05    6008.27320000
  427  2.14895413E+05    4720.15560000
  428  2.24196452E+05    7130.50230000
  429  2.12987661E+05    5655.16610000
  430  2.20568829E+05    5922.07640000
  431  2.18382038E+05     581.02530000
  432  2.20725093E+05    6006.39350000
  433  2.20530067E+05    5644.32890000
  434  2.15422490E+05    3922.13060000
  435  2.16183710E+05    6803.49380000
  436  2.26709940E+05    7403.40580000
  437  2.20997828E+05    8689.78590000
  438  2.14988516E+05    6474.34140000
  439  2.20434777E+05    5841.06500000
  440  2.17710746E+05    5767.50180000
  441  2.20502806E+05    5917.74520000
  442  2.21686355E+05    6462.33830000
  443  2.13170792E+05    7961.40160000
  444  2.26970072E+05    7356.67530000
  445  2.19913945E+05    2299.60000000
  446  2.21543686E+05    6424.08820000
  447  2.17557066E+05    5946.34470000
  448  2.21409670E+05    6282.58830000
  449  2.14703669E+05    4671.07120000
  450  2.21525139E+05    5955.68480000
  451  2.12710600E+05    9992.51930000
  452  2.21607788E+05    5905.57870000
  453  2.12708351E+05    6381.32970000
  454  2.17110094E+05    5993.58710000
  455  2.21319768E+05    8826.62960000
  456  2.21099176E+05    6171.12490000
  457  2.21175677E+05    6249.20920000
  458  2.15420234E+05    5898.38110000
  459  2.26447895E+05    7449.93920000
  460  2.21075276E+05    8875.77080000
  461  2.07336380E+05    7292.90100000
  462  2.21370522E+05    6298.09400000
  463  2.12949710E+05    6394.07140000
  464  2.15438244E+05    5901.49590000
  465  2.17115598E+05    5890.40580000
  466  2.25200448E+05    8590.47510000
  467  2.13592183E+05   11143.71870000
  468  2.21224482E+05    5918.39020000
  469  2.17342604E+05    6343.40130000
  470  2.22796986E+05    6601.47580000
  471  2.20981019E+05    6178.73460000
  472  2.20922193E+05    6089.02780000
  473  2.27937131E+05    9039.06770000
  474  2.16045390E+05    6266.85040000
  475  2.20771514E+05    6092.34980000
  476  2.05193570E+05    8561.37580000
  477  2.20575247E+05    6103.40970000
  478  2.20680325E+05    6247.13630000
  479  2.14778346E+05    5568.19230000
  480  2.20333345E+05    5855.08140000
  481  2.14902836E+05    5025.55210000
  482  2.28478036E+05    7838.91560000
  483  2.20274875E+05    5785.06950000
  484  2.20263794E+05    5668.53130000
  485  2.23426302E+05    8176.69850000
  486  2.20422488E+05    5548.83420000
  487  2.20162429E+05    5645.25830000
  488  2.27483060E+05    7601.00030000
  489  2.20166375E+05    5643.62390000
  490  2.14874097E+05    5402.12880000
  491  2.20159080E+05    5833.38680000
  492  2.13089507E+05   11809.47770000
  493  2.15799717E+05    6507.84530000
  494  2.20619564E+05    9119.97690000
  495  2.28572909E+05    7900.01150000
  496  2.13465318E+05    5782.71520000
  497  2.20083849E+05    5780.85320000
  498  2.14927902E+05    5640.36430000
  499  2.28066667E+05    7569.00900000
  500  2.16404474E+05    7209.02250000
  501  2.24387470E+05    8629.65600000
  502  2.20053582E+05    5787.55800000
  503  2.14762494E+05    5210.61160000
  504  2.20022390E+05    5776.81050000
  505  2.16531973E+05   12155.40520000
  506  2.19876104E+05    5785.79240000
  507  2.07612577E+05    7935.48350000
  508  2.28457774E+05    8011.15010000
  509  2.13240283E+05    5638.54180000
  510  2.19941155E+05    5823.37600000
  511  2.16682119E+05    7694.00800000
  512  2.14189362E+05    5283.31900000
  513  2.15054889E+05   10672.44550000
  514  2.28329713E+05    7647.63670000
  515  2.13316865E+05    5459.60980000
  516  2.19606726E+05    5722.74490000
  517  2.19610120E+05    5566.81900000
  518  2.16967971E+05   11028.88550000
  519  2.19392529E+05    5613.53110000
  520  2.16099394E+05    5412.94200000
  521  2.19394201E+05    5639.42230000
  522  2.13868957E+05    5514.18440000
  523  2.27847981E+05    7595.78160000
  524  2.16324443E+05    7287.29160000
  525  2.19471058E+05    5733.76300000
  526  2.19565509E+05    5745.27290000
  527  2.19720514E+05    5766.19560000
  528  2.28065200E+05    8449.98620000
  529  2.19684183E+05    5453.42160000
  530  2.18633002E+05    5794.02620000
  531  2.21402512E+05    6694.11010000
  532  2.21390428E+05    6681.36230000
  533  2.16419358E+05    7146.97600000
  534  2.26259043E+05    7472.78980000
  535  2.21598170E+05    6697.39850000
  536  2.21820021E+05    6624.51970000
  537  2.28311482E+05    8737.69710000
  538  2.16280049E+05    7312.90230000
  539  2.23846660E+05    7478.30070000
  540  2.22216257E+05    6717.74470000
  541  2.22044260E+05    6745.25050000
  542  2.26060521E+05    7469.85700000
  543  2.23097161E+05    6516.43660000
  544  2.25686818E+05    7508.38980000
  545  2.23216425E+05    6673.38530000
  546  2.22517286E+05    6539.75010000
  547  2.22319326E+05    6779.94900000
  548  2.26348278E+05    7711.31210000
  549  2.23270090E+05    6924.80300000
  550  2.14976958E+05    5612.51310000
  551  2.16697095E+05    7675.20470000
  552  2.23096812E+05    6871.18390000
  553  2.27897356E+05    8156.24540000
  554  2.18158911E+05    7096.26520000
  555  2.23533229E+05    7135.09600000
  556  2.15567258E+05    6368.11720000
  557  2.09925383E+05    7810.63960000
  558  2.26119832E+05    7189.32220000
  559  2.26306225E+05    7151.81720000
  560  2.11403043E+05    7202.07590000
  561  2.28270156E+05    8775.69280000
  562  2.26353590E+05    7170.01080000
  563  2.15086320E+05    5829.38310000
  564  2.26496259E+05    7288.05130000
  565  2.26049605E+05    7439.39860000
  566  2.26660319E+05    7783.09160000
  567  2.25739455E+05    7328.42460000
  568  2.14389868E+05    6177.93340000
  569  2.13550546E+05    5343.26060000
  570  2.25641912E+05    7233.99060000
  571  2.07978666E+05    8067.98860000
  572  2.25437961E+05    7267.86010000
  573  2.11315002E+05   12096.67600000
  574  2.23973721E+05    7081.45660000
  575  2.27602529E+05    7903.85680000
  576  2.23801824E+05    7346.02360000
  577  2.17018557E+05    7415.28300000
  578  2.28228435E+05    8756.68600000
  579  2.24234009E+05    7076.83600000
  580  2.13068398E+05    5648.51390000
  581  2.28196759E+05    8598.95460000
  582  2.09162296E+05    7816.96860000
  583  2.24652351E+05    7142.23730000
  584  2.24867059E+05    7081.51340000
  585  2.28453648E+05    8382.48120000
  586  2.25230771E+05    7236.90290000
  587  2.25075217E+05    7177.61120000
  588  2.28292591E+05    8839.25300000
  589  2.20537036E+05    8673.14210000
  590  2.25269974E+05    7285.38390000
  591  2.25433296E+05    7271.99420000
  592  2.28054146E+05    8614.23380000
  593  2.26938420E+05    7331.18860000
  594  2.13040760E+05    7860.35700000
  595  2.26686966E+05    7469.29790000
  596  2.17764999E+05    5533.12630000
  597  2.27231441E+05    8036.75950000
  598  2.26537668E+05    7525.71290000
  599  2.27328049E+05    7471.04190000
  600  2.17702195E+05    5569.47680000
  601  2.10371027E+05    6854.45720000
  602  2.27132808E+05    7517.51490000
  603  2.13126280E+05    5221.68970000
  604  2.26984351E+05    7405.64410000
  605  2.17842753E+05    2769.90230000
  606  2.27348915E+05    7522.31780000
  607  2.24531013E+05    7453.64780000
  608  2.27638915E+05    7597.98410000
  609  2.16374415E+05    7004.43660000
  610  2.27716329E+05    7534.82450000
  611  2.27903064E+05    8151.65630000
  612  2.28095430E+05    8137.00540000
  613  2.28053317E+05    7839.05100000
  614  2.27910304E+05    7911.68050000
  615  2.16894308E+05    7236.08750000
  616  2.28509443E+05    8015.03020000
  617  2.25382795E+05    7717.46700000
  618  2.28568684E+05    7859.03610000
  619  2.16376902E+05    7323.86090000
  620  2.28419063E+05    7948.59700000
  621  2.28344876E+05    7710.24660000
  622  2.28096088E+05    7599.29490000
  623  2.28377398E+05    8756.79340000
  624  2.27809217E+05    7842.40170000
  625  2.28377701E+05    8800.28780000
  626  2.28102263E+05    7091.80510000
  627  2.08191403E+05   12862.58710000
  628  2.16371870E+05    7669.29430000
  629  2.14401140E+05    5188.77250000
  630  2.27966148E+05    7042.21760000
  631  2.20456650E+05    7484.22130000
  632  2.16327342E+05   11205.52830000
  633  2.28300134E+05    8625.17100000
  634  2.12842117E+05    5993.87500000
  635  2.27833428E+05    6430.48360000
  636  2.19890650E+05    7622.12410000
  637  2.27829488E+05    5609.77780000
  638  2.28325924E+05    4849.85970000
  639  2.19412727E+05    5839.47400000
  640  2.21204836E+05    8883.91800000
  641  2.21206775E+05    6632.04620000
  642  2.28375000E+05    -500.00000000
  643  2.29957997E+05    1437.50000000
  644  2.17017634E+05    5887.50810000
  645  2.30000000E+05    -500.00000000
  646  2.28309460E+05    8755.84680000
  647  2.16494940E+05    5765.30860000
  648  2.19274730E+05    5809.35800000
  649  2.28293701E+05    8811.17630000
  650  2.16294092E+05    4411.41920000
  651  2.28315642E+05    8763.82230000
  652  2.21194497E+05    8927.09850000
  653  2.18160382E+05    5459.97970000
  654  2.28350893E+05    8792.53320000
  655  2.26668473E+05    7878.70320000
  656  2.28332190E+05    8815.34470000
  657  2.28586707E+05    8045.78130000
  658  2.15452624E+05    6536.13630000
  659  2.18115140E+05   11327.00550000
  660  2.28367830E+05    8107.82380000
  661  2.28451686E+05    8141.66870000
  662  2.28300931E+05    8243.00810000
  663  2.05698395E+05   11819.20620000
  664  2.28797752E+05    9872.93390000
  665  2.26052048E+05    7839.83640000
  666  2.28199944E+05    8261.68580000
  667  2.16410150E+05   11213.65190000
  668  2.17187582E+05    5751.76720000
  669  2.27447051E+05    9258.25490000
  670  2.14228038E+05    8528.18180000
  671  2.16750442E+05    5523.97470000
  672  2.15698747E+05    4413.39060000
  673  2.28200756E+05    8827.63580000
  674  2.28682722E+05    7992.69770000
  675  2.17031092E+05    5639.62490000
  676  2.16944687E+05    5788.92560000
  677  2.17426679E+05    5724.74750000
  678  2.16580032E+05    5740.94210000
  679  2.14228986E+05    5471.73690000
  680  2.17534633E+05    5197.36160000
  681  2.17560944E+05    5185.81890000
  682  2.14576583E+05    8534.88750000
  683  2.17750202E+05    5136.96690000
  684  2.20254397E+05    6059.33010000
  685  2.12873298E+05   10068.22410000
  686  2.28251543E+05    8852.81740000
  687  2.17699006E+05    5151.51160000
  688  2.17572725E+05    5628.29860000
  689  2.17612426E+05    5111.77230000
  690  2.14577145E+05    4937.18050000
  691  2.14012944E+05    5237.31480000
  692  2.17794708E+05    5088.63070000
  693  2.08331651E+05    7451.88020000
  694  2.20418802E+05    6089.31490000
  695  2.13008678E+05    4410.91490000
  696  2.17396799E+05    5137.33270000
  697  2.09333091E+05    7629.82360000
  698  2.17005142E+05    5342.52320000
  699  2.16765805E+05    5392.09210000
  700  2.18226600E+05    5466.82670000
  701  2.17083257E+05    5115.86430000
  702  2.20857919E+05    6392.76510000
  703  2.26686870E+05    1021.15890000
  704  2.30000000E+05    7492.18750000
  705  2.13362374E+05    7688.52050000
  706  2.26505340E+05    8168.47780000
  707  2.11227280E+05    6921.62820000
  708  2.28771504E+05    2840.69450000
  709  2.27520635E+05    3207.91700000
  710  2.25749204E+05    2898.59540000
  711  2.19467294E+05    5903.23130000
  712  2.21272451E+05    9003.41440000
  713  2.20144245E+05    5971.31510000
  714  2.22922818E+05    5105.16020000
  715  2.15576720E+05    6490.55070000
  716  2.17603060E+05   11401.74010000
  717  2.23174679E+05    4315.45910000
  718  2.15373492E+05    7656.96650000
  719  2.24160019E+05    3539.88870000
  720  2.19396154E+05    6032.65700000
  721  2.26413713E+05    8616.12260000
  722  2.19923887E+05    5976.83240000
  723  2.22186032E+05    5452.31400000
  724  2.28666759E+05    8278.31840000
  725  2.26750000E+05    -500.00000000
  726  2.20685006E+05    6371.27980000
  727  2.28138444E+05    8893.78030000
  728  2.25125000E+05    -500.00000000
  729  2.20136962E+05    5434.24270000
  730  2.25983503E+05    8648.66790000
  731  2.20246239E+05    5386.16560000
  732  2.27250520E+05    7795.64700000
  733  2.20045059E+05    5937.13880000
  734  2.27780373E+05    8909.95500000
  735  2.07980945E+05    8011.91940000
  736  2.19682754E+05    5390.80050000
  737  2.11667994E+05    6238.56420000
  738  2.19437500E+05    -500.00000000
  739  2.19613338E+05    5328.08800000
  740  2.20984719E+05    6877.55980000
  741  2.21264067E+05    9018.76570000
  742  2.19409863E+05    5350.98550000
  743  2.16077954E+05    7233.74760000
  744  2.21288002E+05    5400.93400000
  745  2.21789922E+05    5343.06500000
  746  2.22431007E+05    7053.81150000
  747  2.20626663E+05    5221.60520000
  748  2.14373761E+05    5717.62660000
  749  2.18323385E+05    5063.08770000
  750  2.23172705E+05    7157.93900000
  751  2.18141184E+05    4975.75560000
  752  2.23267891E+05    7311.29680000
  753  2.22509956E+05    7547.93720000
  754  2.21545446E+05    6914.88090000
  755  2.18274395E+05    4922.64280000
  756  2.18655816E+05    5257.30090000
  757  2.20464082E+05    6341.67940000
  758  2.22660174E+05    6832.40780000
  759  2.18596255E+05    4999.52220000
  760  2.18717481E+05    5215.23980000
  761  2.21218338E+05    8454.37530000
  762  2.22199179E+05    6962.85710000
  763  2.18975469E+05    4961.55020000
  764  2.19184808E+05    5245.64930000