# File generated by Flopy version 3.3.3 on 06/03/2021 at 21:40:26.
BEGIN options
  SAVE_FLOWS
END options

BEGIN packages
  DISV6  test.disv  disv
  NPF6  test.npf  npf
  OC6  test.oc  oc
  IC6  test.ic  ic
END packages

