# MODFLOW-6 GWF Model Name File exported by HydroAlgorithmics' AlgoMesh 2.0.15.

BEGIN OPTIONS
  PRINT_INPUT
  SAVE_FLOWS
  NEWTON
END OPTIONS

BEGIN PACKAGES
  DISU6 'm5_mf6.disu'
  OC6   'm5_mf6.oc'
END PACKAGES
