# File generated by Flopy version 3.3.3 on 06/03/2021 at 08:56:50.
BEGIN griddata
  strt
    CONSTANT     320.00000000
END griddata

