# File generated by Flopy version 3.3.3 on 06/03/2021 at 08:56:50.
BEGIN options
  K33OVERK
END options

BEGIN griddata
  icelltype
    CONSTANT  1
  k
    CONSTANT       1.00000000
  k33
    CONSTANT       1.00000000
END griddata

