# File generated by Flopy version 3.3.3 on 06/03/2021 at 08:56:50.
BEGIN OPTIONS
  BUDGET  FILEOUT  test.cbc
  HEAD  FILEOUT  test.hds
END OPTIONS

BEGIN PERIOD  1
  SAVE  head  all
  SAVE  budget  all
  PRINT  budget  all
END PERIOD  1

