# File generated by Flopy version 3.3.3 on 06/03/2021 at 08:56:49.
BEGIN OPTIONS
  PRINT_INPUT
  SAVE_FLOWS
  NEWTON
END OPTIONS

BEGIN PACKAGES
  NPF6  test.npf  npf
  disu6  test.disu
  oc6  test.oc
  IC6  test.ic  ic
END PACKAGES

