# File generated by Flopy version 3.3.3 on 11/08/2020 at 09:52:44.
BEGIN options
  TIME_UNITS  days
END options

BEGIN dimensions
  NPER  2
END dimensions

BEGIN perioddata
       0.00000000  1       1.00000000
       1.00000000  10       1.00000000
END perioddata

