# File generated by Flopy version 3.3.3 on 11/08/2020 at 09:47:30.
BEGIN OPTIONS
  PRINT_OPTION  summary
  CSV_OUTPUT  FILEOUT  test_vor.csv
END OPTIONS

BEGIN NONLINEAR
  OUTER_HCLOSE       0.01000000
  OUTER_MAXIMUM  5000
  UNDER_RELAXATION  dbd
  UNDER_RELAXATION_GAMMA       0.10000000
  UNDER_RELAXATION_THETA       0.70000000
  UNDER_RELAXATION_KAPPA       0.07000000
  UNDER_RELAXATION_MOMENTUM       0.00000000
  BACKTRACKING_NUMBER  200
  BACKTRACKING_TOLERANCE       1.10000000
  BACKTRACKING_REDUCTION_FACTOR       0.20000000
  BACKTRACKING_RESIDUAL_LIMIT       1.00000000
END NONLINEAR

BEGIN LINEAR
  INNER_MAXIMUM  100
  INNER_HCLOSE       0.00100000
  INNER_RCLOSE  1.00000000E-04
  LINEAR_ACCELERATION  bicgstab
  RELAXATION_FACTOR       0.00000000
  PRECONDITIONER_LEVELS  0
  PRECONDITIONER_DROP_TOLERANCE  1.00000000E-04
  NUMBER_ORTHOGONALIZATIONS  0
  SCALING_METHOD  none
  REORDERING_METHOD  none
END LINEAR

