# MODFLOW-6 Output Control (OC6) option exported by HydroAlgorithmics' AlgoMesh 2.0.15.

BEGIN OPTIONS
  HEAD FILEOUT 'test.hds'
  BUDGET FILEOUT 'test.cbc'
END OPTIONS

BEGIN PERIOD 1
  SAVE HEAD ALL
  SAVE BUDGET ALL
  PRINT BUDGET ALL
END PERIOD
