# MODFLOW-6 Unstructured Discretization (DISU6) package exported by HydroAlgorithmics' AlgoMesh 2.0.15.

BEGIN OPTIONS
  LENGTH_UNITS METERS
END OPTIONS

BEGIN DIMENSIONS
  NODES 3583
  NJA 14273
  NVERT 1822
END DIMENSIONS

BEGIN GRIDDATA
  TOP
    INTERNAL
             0.0000        0.0000        0.0000        0.0000        0.0000        0.0000        0.0000        0.0000        0.0000        0.0000
             0.0000        0.0000        0.0000        0.0000        0.0000        0.0000        0.0000        0.0000        0.0000        0.0000
             0.0000        0.0000        0.0000        0.0000        0.0000        0.0000        0.0000        0.0000        0.0000        0.0000
             0.0000        0.0000        0.0000        0.0000        0.0000        0.0000        0.0000        0.0000        0.0000        0.0000
             0.0000        0.0000        0.0000        0.0000        0.0000        0.0000        0.0000        0.0000        0.0000        0.0000
             0.0000        0.0000        0.0000        0.0000        0.0000        0.0000        0.0000        0.0000        0.0000        0.0000
             0.0000        0.0000        0.0000        0.0000        0.0000        0.0000        0.0000        0.0000        0.0000        0.0000
             0.0000        0.0000        0.0000        0.0000        0.0000        0.0000        0.0000        0.0000        0.0000        0.0000
             0.0000        0.0000        0.0000        0.0000        0.0000        0.0000        0.0000        0.0000        0.0000        0.0000
             0.0000        0.0000        0.0000        0.0000        0.0000        0.0000        0.0000        0.0000        0.0000        0.0000
             0.0000        0.0000        0.0000        0.0000        0.0000        0.0000        0.0000        0.0000        0.0000        0.0000
             0.0000        0.0000        0.0000        0.0000        0.0000        0.0000        0.0000        0.0000        0.0000        0.0000
             0.0000        0.0000        0.0000        0.0000        0.0000        0.0000        0.0000        0.0000        0.0000        0.0000
             0.0000        0.0000        0.0000        0.0000        0.0000        0.0000        0.0000        0.0000        0.0000        0.0000
             0.0000        0.0000        0.0000        0.0000        0.0000        0.0000        0.0000        0.0000        0.0000        0.0000
             0.0000        0.0000        0.0000        0.0000        0.0000        0.0000        0.0000        0.0000        0.0000        0.0000
             0.0000        0.0000        0.0000        0.0000        0.0000        0.0000        0.0000        0.0000        0.0000        0.0000
             0.0000        0.0000        0.0000        0.0000        0.0000        0.0000        0.0000        0.0000        0.0000        0.0000
             0.0000        0.0000        0.0000        0.0000        0.0000        0.0000        0.0000        0.0000        0.0000        0.0000
             0.0000        0.0000        0.0000        0.0000        0.0000        0.0000        0.0000        0.0000        0.0000        0.0000
             0.0000        0.0000        0.0000        0.0000        0.0000        0.0000        0.0000        0.0000        0.0000        0.0000
             0.0000        0.0000        0.0000        0.0000        0.0000        0.0000        0.0000        0.0000        0.0000        0.0000
             0.0000        0.0000        0.0000        0.0000        0.0000        0.0000        0.0000        0.0000        0.0000        0.0000
             0.0000        0.0000        0.0000        0.0000        0.0000        0.0000        0.0000        0.0000        0.0000        0.0000
             0.0000        0.0000        0.0000        0.0000        0.0000        0.0000        0.0000        0.0000        0.0000        0.0000
             0.0000        0.0000        0.0000        0.0000        0.0000        0.0000        0.0000        0.0000        0.0000        0.0000
             0.0000        0.0000        0.0000        0.0000        0.0000        0.0000        0.0000        0.0000        0.0000        0.0000
             0.0000        0.0000        0.0000        0.0000        0.0000        0.0000        0.0000        0.0000        0.0000        0.0000
             0.0000        0.0000        0.0000        0.0000        0.0000        0.0000        0.0000        0.0000        0.0000        0.0000
             0.0000        0.0000        0.0000        0.0000        0.0000        0.0000        0.0000        0.0000        0.0000        0.0000
             0.0000        0.0000        0.0000        0.0000        0.0000        0.0000        0.0000        0.0000        0.0000        0.0000
             0.0000        0.0000        0.0000        0.0000        0.0000        0.0000        0.0000        0.0000        0.0000        0.0000
             0.0000        0.0000        0.0000        0.0000        0.0000        0.0000        0.0000        0.0000        0.0000        0.0000
             0.0000        0.0000        0.0000        0.0000        0.0000        0.0000        0.0000        0.0000        0.0000        0.0000
             0.0000        0.0000        0.0000        0.0000        0.0000        0.0000        0.0000        0.0000        0.0000        0.0000
             0.0000        0.0000        0.0000        0.0000        0.0000        0.0000        0.0000        0.0000        0.0000        0.0000
             0.0000        0.0000        0.0000        0.0000        0.0000        0.0000        0.0000        0.0000        0.0000        0.0000
             0.0000        0.0000        0.0000        0.0000        0.0000        0.0000        0.0000        0.0000        0.0000        0.0000
             0.0000        0.0000        0.0000        0.0000        0.0000        0.0000        0.0000        0.0000        0.0000        0.0000
             0.0000        0.0000        0.0000        0.0000        0.0000        0.0000        0.0000        0.0000        0.0000        0.0000
             0.0000        0.0000        0.0000        0.0000        0.0000        0.0000        0.0000        0.0000        0.0000        0.0000
             0.0000        0.0000        0.0000        0.0000        0.0000        0.0000        0.0000        0.0000        0.0000        0.0000
             0.0000        0.0000        0.0000        0.0000        0.0000        0.0000        0.0000        0.0000        0.0000        0.0000
             0.0000        0.0000        0.0000        0.0000        0.0000        0.0000        0.0000        0.0000        0.0000        0.0000
             0.0000        0.0000        0.0000        0.0000        0.0000        0.0000        0.0000        0.0000        0.0000        0.0000
             0.0000        0.0000        0.0000        0.0000        0.0000        0.0000        0.0000        0.0000        0.0000        0.0000
             0.0000        0.0000        0.0000        0.0000        0.0000        0.0000        0.0000        0.0000        0.0000        0.0000
             0.0000        0.0000        0.0000        0.0000        0.0000        0.0000        0.0000        0.0000        0.0000        0.0000
             0.0000        0.0000        0.0000        0.0000        0.0000        0.0000        0.0000        0.0000        0.0000        0.0000
             0.0000        0.0000        0.0000        0.0000        0.0000        0.0000        0.0000        0.0000        0.0000        0.0000
             0.0000        0.0000        0.0000        0.0000        0.0000        0.0000        0.0000        0.0000        0.0000        0.0000
             0.0000        0.0000        0.0000        0.0000        0.0000        0.0000        0.0000        0.0000        0.0000        0.0000
             0.0000        0.0000        0.0000        0.0000        0.0000        0.0000        0.0000        0.0000        0.0000        0.0000
             0.0000        0.0000        0.0000        0.0000        0.0000        0.0000        0.0000        0.0000        0.0000        0.0000
             0.0000        0.0000        0.0000        0.0000        0.0000        0.0000        0.0000        0.0000        0.0000        0.0000
             0.0000        0.0000        0.0000        0.0000        0.0000        0.0000        0.0000        0.0000        0.0000        0.0000
             0.0000        0.0000        0.0000        0.0000        0.0000        0.0000        0.0000        0.0000        0.0000        0.0000
             0.0000        0.0000        0.0000        0.0000        0.0000        0.0000        0.0000        0.0000        0.0000        0.0000
             0.0000        0.0000        0.0000        0.0000        0.0000        0.0000        0.0000        0.0000        0.0000        0.0000
             0.0000        0.0000        0.0000        0.0000        0.0000        0.0000        0.0000        0.0000        0.0000        0.0000
             0.0000        0.0000        0.0000        0.0000        0.0000        0.0000        0.0000        0.0000        0.0000        0.0000
             0.0000        0.0000        0.0000        0.0000        0.0000        0.0000        0.0000        0.0000        0.0000        0.0000
             0.0000        0.0000        0.0000        0.0000        0.0000        0.0000        0.0000        0.0000        0.0000        0.0000
             0.0000        0.0000        0.0000        0.0000        0.0000        0.0000        0.0000        0.0000        0.0000        0.0000
             0.0000        0.0000        0.0000        0.0000        0.0000        0.0000        0.0000        0.0000        0.0000        0.0000
             0.0000        0.0000        0.0000        0.0000        0.0000        0.0000        0.0000        0.0000        0.0000        0.0000
             0.0000        0.0000        0.0000        0.0000        0.0000        0.0000        0.0000        0.0000        0.0000        0.0000
             0.0000        0.0000        0.0000        0.0000        0.0000        0.0000        0.0000        0.0000        0.0000        0.0000
             0.0000        0.0000        0.0000        0.0000        0.0000        0.0000        0.0000        0.0000        0.0000        0.0000
             0.0000        0.0000        0.0000        0.0000        0.0000        0.0000        0.0000        0.0000        0.0000        0.0000
             0.0000        0.0000        0.0000        0.0000        0.0000        0.0000        0.0000        0.0000        0.0000        0.0000
             0.0000        0.0000        0.0000        0.0000        0.0000        0.0000        0.0000        0.0000        0.0000        0.0000
             0.0000        0.0000        0.0000        0.0000        0.0000        0.0000        0.0000        0.0000        0.0000        0.0000
             0.0000        0.0000        0.0000        0.0000        0.0000        0.0000        0.0000        0.0000        0.0000        0.0000
             0.0000        0.0000        0.0000        0.0000        0.0000        0.0000        0.0000        0.0000        0.0000        0.0000
             0.0000        0.0000        0.0000        0.0000        0.0000        0.0000        0.0000        0.0000        0.0000        0.0000
             0.0000        0.0000        0.0000        0.0000        0.0000        0.0000        0.0000        0.0000        0.0000        0.0000
             0.0000        0.0000        0.0000        0.0000        0.0000        0.0000        0.0000        0.0000        0.0000        0.0000
             0.0000        0.0000        0.0000        0.0000        0.0000        0.0000        0.0000        0.0000        0.0000        0.0000
             0.0000        0.0000        0.0000        0.0000        0.0000        0.0000        0.0000        0.0000        0.0000        0.0000
             0.0000        0.0000        0.0000        0.0000        0.0000        0.0000        0.0000        0.0000        0.0000        0.0000
             0.0000        0.0000        0.0000        0.0000        0.0000        0.0000        0.0000        0.0000        0.0000        0.0000
             0.0000        0.0000        0.0000        0.0000        0.0000        0.0000        0.0000        0.0000        0.0000        0.0000
             0.0000        0.0000        0.0000        0.0000        0.0000        0.0000        0.0000        0.0000        0.0000        0.0000
             0.0000        0.0000        0.0000        0.0000        0.0000        0.0000        0.0000        0.0000        0.0000        0.0000
             0.0000        0.0000        0.0000        0.0000        0.0000        0.0000        0.0000        0.0000        0.0000        0.0000
             0.0000        0.0000        0.0000        0.0000        0.0000        0.0000        0.0000        0.0000        0.0000        0.0000
             0.0000        0.0000        0.0000        0.0000        0.0000        0.0000        0.0000        0.0000        0.0000        0.0000
             0.0000        0.0000        0.0000        0.0000        0.0000        0.0000        0.0000        0.0000        0.0000        0.0000
             0.0000        0.0000        0.0000        0.0000        0.0000        0.0000        0.0000        0.0000        0.0000        0.0000
             0.0000        0.0000        0.0000        0.0000        0.0000        0.0000        0.0000        0.0000        0.0000        0.0000
             0.0000        0.0000        0.0000        0.0000        0.0000        0.0000        0.0000        0.0000        0.0000        0.0000
             0.0000        0.0000        0.0000        0.0000        0.0000        0.0000        0.0000        0.0000        0.0000        0.0000
             0.0000        0.0000        0.0000        0.0000        0.0000        0.0000        0.0000        0.0000        0.0000        0.0000
             0.0000        0.0000        0.0000        0.0000        0.0000        0.0000        0.0000        0.0000        0.0000        0.0000
             0.0000        0.0000        0.0000        0.0000        0.0000        0.0000        0.0000        0.0000        0.0000        0.0000
             0.0000        0.0000        0.0000        0.0000        0.0000        0.0000        0.0000        0.0000        0.0000        0.0000
             0.0000        0.0000        0.0000        0.0000        0.0000        0.0000        0.0000        0.0000        0.0000        0.0000
             0.0000        0.0000        0.0000        0.0000        0.0000        0.0000        0.0000        0.0000        0.0000        0.0000
             0.0000        0.0000        0.0000        0.0000        0.0000        0.0000        0.0000        0.0000        0.0000        0.0000
             0.0000        0.0000        0.0000        0.0000        0.0000        0.0000        0.0000        0.0000        0.0000        0.0000
             0.0000        0.0000        0.0000        0.0000        0.0000        0.0000        0.0000        0.0000        0.0000        0.0000
             0.0000        0.0000        0.0000        0.0000        0.0000        0.0000        0.0000        0.0000        0.0000        0.0000
             0.0000        0.0000        0.0000        0.0000        0.0000        0.0000        0.0000        0.0000        0.0000        0.0000
             0.0000        0.0000        0.0000        0.0000        0.0000        0.0000        0.0000        0.0000        0.0000        0.0000
             0.0000        0.0000        0.0000        0.0000        0.0000        0.0000        0.0000        0.0000        0.0000        0.0000
             0.0000        0.0000        0.0000        0.0000        0.0000        0.0000        0.0000        0.0000        0.0000        0.0000
             0.0000        0.0000        0.0000        0.0000        0.0000        0.0000        0.0000        0.0000        0.0000        0.0000
             0.0000        0.0000        0.0000        0.0000        0.0000        0.0000        0.0000        0.0000        0.0000        0.0000
             0.0000        0.0000        0.0000        0.0000        0.0000        0.0000        0.0000        0.0000        0.0000        0.0000
             0.0000        0.0000        0.0000        0.0000        0.0000        0.0000        0.0000        0.0000        0.0000        0.0000
             0.0000        0.0000        0.0000        0.0000        0.0000        0.0000        0.0000        0.0000        0.0000        0.0000
             0.0000        0.0000        0.0000        0.0000        0.0000        0.0000        0.0000        0.0000        0.0000        0.0000
             0.0000        0.0000        0.0000        0.0000        0.0000        0.0000        0.0000        0.0000        0.0000        0.0000
             0.0000        0.0000        0.0000        0.0000        0.0000        0.0000        0.0000        0.0000        0.0000        0.0000
             0.0000        0.0000        0.0000        0.0000        0.0000        0.0000        0.0000        0.0000        0.0000        0.0000
             0.0000        0.0000        0.0000        0.0000        0.0000        0.0000        0.0000        0.0000        0.0000        0.0000
             0.0000        0.0000        0.0000        0.0000        0.0000        0.0000        0.0000        0.0000        0.0000        0.0000
             0.0000        0.0000        0.0000        0.0000        0.0000        0.0000        0.0000        0.0000        0.0000        0.0000
             0.0000        0.0000        0.0000        0.0000        0.0000        0.0000        0.0000        0.0000        0.0000        0.0000
             0.0000        0.0000        0.0000        0.0000        0.0000        0.0000        0.0000        0.0000        0.0000        0.0000
             0.0000        0.0000        0.0000        0.0000        0.0000        0.0000        0.0000        0.0000        0.0000        0.0000
             0.0000        0.0000        0.0000        0.0000        0.0000        0.0000        0.0000        0.0000        0.0000        0.0000
             0.0000        0.0000        0.0000        0.0000        0.0000        0.0000        0.0000        0.0000        0.0000        0.0000
             0.0000        0.0000        0.0000        0.0000        0.0000        0.0000        0.0000        0.0000        0.0000        0.0000
             0.0000        0.0000        0.0000        0.0000        0.0000        0.0000        0.0000        0.0000        0.0000        0.0000
             0.0000        0.0000        0.0000        0.0000        0.0000        0.0000        0.0000        0.0000        0.0000        0.0000
             0.0000        0.0000        0.0000        0.0000        0.0000        0.0000        0.0000        0.0000        0.0000        0.0000
             0.0000        0.0000        0.0000        0.0000        0.0000        0.0000        0.0000        0.0000        0.0000        0.0000
             0.0000        0.0000        0.0000        0.0000        0.0000        0.0000        0.0000        0.0000        0.0000        0.0000
             0.0000        0.0000        0.0000        0.0000        0.0000        0.0000        0.0000        0.0000        0.0000        0.0000
             0.0000        0.0000        0.0000        0.0000        0.0000        0.0000        0.0000        0.0000        0.0000        0.0000
             0.0000        0.0000        0.0000        0.0000        0.0000        0.0000        0.0000        0.0000        0.0000        0.0000
             0.0000        0.0000        0.0000        0.0000        0.0000        0.0000        0.0000        0.0000        0.0000        0.0000
             0.0000        0.0000        0.0000        0.0000        0.0000        0.0000        0.0000        0.0000        0.0000        0.0000
             0.0000        0.0000        0.0000        0.0000        0.0000        0.0000        0.0000        0.0000        0.0000        0.0000
             0.0000        0.0000        0.0000        0.0000        0.0000        0.0000        0.0000        0.0000        0.0000        0.0000
             0.0000        0.0000        0.0000        0.0000        0.0000        0.0000        0.0000        0.0000        0.0000        0.0000
             0.0000        0.0000        0.0000        0.0000        0.0000        0.0000        0.0000        0.0000        0.0000        0.0000
             0.0000        0.0000        0.0000        0.0000        0.0000        0.0000        0.0000        0.0000        0.0000        0.0000
             0.0000        0.0000        0.0000        0.0000        0.0000        0.0000        0.0000        0.0000        0.0000        0.0000
             0.0000        0.0000        0.0000        0.0000        0.0000        0.0000        0.0000        0.0000        0.0000        0.0000
             0.0000        0.0000        0.0000        0.0000        0.0000        0.0000        0.0000        0.0000        0.0000        0.0000
             0.0000        0.0000        0.0000        0.0000        0.0000        0.0000        0.0000        0.0000        0.0000        0.0000
             0.0000        0.0000        0.0000        0.0000        0.0000        0.0000        0.0000        0.0000        0.0000        0.0000
             0.0000        0.0000        0.0000        0.0000        0.0000        0.0000        0.0000        0.0000        0.0000        0.0000
             0.0000        0.0000        0.0000        0.0000        0.0000        0.0000        0.0000        0.0000        0.0000        0.0000
             0.0000        0.0000        0.0000        0.0000        0.0000        0.0000        0.0000        0.0000        0.0000        0.0000
             0.0000        0.0000        0.0000        0.0000        0.0000        0.0000        0.0000        0.0000        0.0000        0.0000
             0.0000        0.0000        0.0000        0.0000        0.0000        0.0000        0.0000        0.0000        0.0000        0.0000
             0.0000        0.0000        0.0000        0.0000        0.0000        0.0000        0.0000        0.0000        0.0000        0.0000
             0.0000        0.0000        0.0000        0.0000        0.0000        0.0000        0.0000        0.0000        0.0000        0.0000
             0.0000        0.0000        0.0000        0.0000        0.0000        0.0000        0.0000        0.0000        0.0000        0.0000
             0.0000        0.0000        0.0000        0.0000        0.0000        0.0000        0.0000        0.0000        0.0000        0.0000
             0.0000        0.0000        0.0000        0.0000        0.0000        0.0000        0.0000        0.0000        0.0000        0.0000
             0.0000        0.0000        0.0000        0.0000        0.0000        0.0000        0.0000        0.0000        0.0000        0.0000
             0.0000        0.0000        0.0000        0.0000        0.0000        0.0000        0.0000        0.0000        0.0000        0.0000
             0.0000        0.0000        0.0000        0.0000        0.0000        0.0000        0.0000        0.0000        0.0000        0.0000
             0.0000        0.0000        0.0000        0.0000        0.0000        0.0000        0.0000        0.0000        0.0000        0.0000
             0.0000        0.0000        0.0000        0.0000        0.0000        0.0000        0.0000        0.0000        0.0000        0.0000
             0.0000        0.0000        0.0000        0.0000        0.0000        0.0000        0.0000        0.0000        0.0000        0.0000
             0.0000        0.0000        0.0000        0.0000        0.0000        0.0000        0.0000        0.0000        0.0000        0.0000
             0.0000        0.0000        0.0000        0.0000        0.0000        0.0000        0.0000        0.0000        0.0000        0.0000
             0.0000        0.0000        0.0000        0.0000        0.0000        0.0000        0.0000        0.0000        0.0000        0.0000
             0.0000        0.0000        0.0000        0.0000        0.0000        0.0000        0.0000        0.0000        0.0000        0.0000
             0.0000        0.0000        0.0000        0.0000        0.0000        0.0000        0.0000        0.0000        0.0000        0.0000
             0.0000        0.0000        0.0000        0.0000        0.0000        0.0000        0.0000        0.0000        0.0000        0.0000
             0.0000        0.0000        0.0000        0.0000        0.0000        0.0000        0.0000        0.0000        0.0000        0.0000
             0.0000        0.0000        0.0000        0.0000        0.0000        0.0000        0.0000        0.0000        0.0000        0.0000
             0.0000        0.0000        0.0000        0.0000        0.0000        0.0000        0.0000        0.0000        0.0000        0.0000
             0.0000        0.0000        0.0000        0.0000        0.0000        0.0000        0.0000        0.0000        0.0000        0.0000
             0.0000        0.0000        0.0000        0.0000        0.0000        0.0000        0.0000        0.0000        0.0000        0.0000
             0.0000        0.0000        0.0000        0.0000        0.0000        0.0000        0.0000        0.0000        0.0000        0.0000
             0.0000        0.0000        0.0000        0.0000        0.0000        0.0000        0.0000        0.0000        0.0000        0.0000
             0.0000        0.0000        0.0000        0.0000        0.0000        0.0000        0.0000        0.0000        0.0000        0.0000
             0.0000        0.0000        0.0000        0.0000        0.0000        0.0000        0.0000        0.0000        0.0000        0.0000
             0.0000        0.0000        0.0000        0.0000        0.0000        0.0000        0.0000        0.0000        0.0000        0.0000
             0.0000        0.0000        0.0000        0.0000        0.0000        0.0000        0.0000        0.0000        0.0000        0.0000
             0.0000        0.0000        0.0000        0.0000        0.0000        0.0000        0.0000        0.0000        0.0000        0.0000
             0.0000        0.0000        0.0000        0.0000        0.0000        0.0000        0.0000        0.0000        0.0000        0.0000
             0.0000        0.0000        0.0000        0.0000        0.0000        0.0000        0.0000        0.0000        0.0000        0.0000
             0.0000        0.0000        0.0000        0.0000        0.0000        0.0000        0.0000        0.0000        0.0000        0.0000
             0.0000        0.0000        0.0000        0.0000        0.0000        0.0000        0.0000        0.0000        0.0000        0.0000
             0.0000        0.0000        0.0000        0.0000        0.0000        0.0000        0.0000        0.0000        0.0000        0.0000
             0.0000        0.0000        0.0000        0.0000        0.0000        0.0000        0.0000        0.0000        0.0000        0.0000
             0.0000        0.0000        0.0000        0.0000        0.0000        0.0000        0.0000        0.0000        0.0000        0.0000
             0.0000        0.0000        0.0000        0.0000        0.0000        0.0000        0.0000        0.0000        0.0000        0.0000
             0.0000        0.0000        0.0000        0.0000        0.0000        0.0000        0.0000        0.0000        0.0000        0.0000
             0.0000        0.0000        0.0000        0.0000        0.0000        0.0000        0.0000        0.0000        0.0000        0.0000
             0.0000        0.0000        0.0000        0.0000        0.0000        0.0000        0.0000        0.0000        0.0000        0.0000
             0.0000        0.0000        0.0000        0.0000        0.0000        0.0000        0.0000        0.0000        0.0000        0.0000
             0.0000        0.0000        0.0000        0.0000        0.0000        0.0000        0.0000        0.0000        0.0000        0.0000
             0.0000        0.0000        0.0000        0.0000        0.0000        0.0000        0.0000        0.0000        0.0000        0.0000
             0.0000        0.0000        0.0000        0.0000        0.0000        0.0000        0.0000        0.0000        0.0000        0.0000
             0.0000        0.0000        0.0000        0.0000        0.0000        0.0000        0.0000        0.0000        0.0000        0.0000
             0.0000        0.0000        0.0000        0.0000        0.0000        0.0000        0.0000        0.0000        0.0000        0.0000
             0.0000        0.0000        0.0000        0.0000        0.0000        0.0000        0.0000        0.0000        0.0000        0.0000
             0.0000        0.0000        0.0000        0.0000        0.0000        0.0000        0.0000        0.0000        0.0000        0.0000
             0.0000        0.0000        0.0000        0.0000        0.0000        0.0000        0.0000        0.0000        0.0000        0.0000
             0.0000        0.0000        0.0000        0.0000        0.0000        0.0000        0.0000        0.0000        0.0000        0.0000
             0.0000        0.0000        0.0000        0.0000        0.0000        0.0000        0.0000        0.0000        0.0000        0.0000
             0.0000        0.0000        0.0000        0.0000        0.0000        0.0000        0.0000        0.0000        0.0000        0.0000
             0.0000        0.0000        0.0000        0.0000        0.0000        0.0000        0.0000        0.0000        0.0000        0.0000