# File generated by Flopy version 3.3.3 on 11/08/2020 at 09:47:30.
BEGIN OPTIONS
  BUDGET  FILEOUT  test_vor.cbc
  HEAD  FILEOUT  test_vor.hds
END OPTIONS

BEGIN PERIOD  1
  SAVE  head  all
  SAVE  budget  all
  PRINT  budget  all
END PERIOD  1

