# MODFLOW-6 Iterative Model Solution (IMS6) package exported by HydroAlgorithmics' AlgoMesh 2.0.15.

BEGIN OPTIONS
  PRINT_OPTION SUMMARY
  CSV_OUTPUT FILEOUT 'test_tri.csv'
END OPTIONS

BEGIN NONLINEAR
  OUTER_HCLOSE    0.0100
  OUTER_MAXIMUM 5000
  UNDER_RELAXATION DBD
  UNDER_RELAXATION_THETA    0.7000
  UNDER_RELAXATION_KAPPA    0.0700
  UNDER_RELAXATION_GAMMA    0.1000
  UNDER_RELAXATION_MOMENTUM    0.0000
  BACKTRACKING_NUMBER  200
  BACKTRACKING_TOLERANCE    1.1000
  BACKTRACKING_REDUCTION_FACTOR    0.2000
  BACKTRACKING_RESIDUAL_LIMIT    1.0000
END NONLINEAR

BEGIN LINEAR
  INNER_MAXIMUM  100
  INNER_HCLOSE    0.0010
  INNER_RCLOSE    0.0001 
  LINEAR_ACCELERATION BICGSTAB
  RELAXATION_FACTOR    0.0000
  PRECONDITIONER_LEVELS    0
  PRECONDITIONER_DROP_TOLERANCE    0.0001
  NUMBER_ORTHOGONALIZATIONS    0
  SCALING_METHOD NONE
  REORDERING_METHOD NONE
END LINEAR
