# File generated by Flopy version 3.3.3 on 11/08/2020 at 09:47:30.
BEGIN OPTIONS
  PRINT_INPUT
  SAVE_FLOWS
  NEWTON
END OPTIONS

BEGIN PACKAGES
  disu6  test_vor.disu
  oc6  test_vor.oc
END PACKAGES

