# MODFLOW-6 Temporal Discretization (TDIS6) package exported by HydroAlgorithmics' AlgoMesh 2.0.15.

BEGIN OPTIONS
  TIME_UNITS DAYS
END OPTIONS

BEGIN DIMENSIONS
  NPER 1
END DIMENSIONS

BEGIN PERIODDATA
#    perlen nstp    tsmult
     1.0000    1    1.2000
END PERIODDATA
