# File generated by Flopy version 3.3.3 on 11/08/2020 at 09:47:30.
BEGIN OPTIONS
  TIME_UNITS  undefined
END OPTIONS

BEGIN DIMENSIONS
  NPER  1
END DIMENSIONS

BEGIN PERIODDATA
       1.00000000  1       1.20000000
END PERIODDATA

