# File generated by Flopy version 3.3.3 on 11/08/2020 at 09:52:44.
BEGIN griddata
  strt
    CONSTANT     320.00000000
END griddata

