# File generated by Flopy version 3.3.3 on 11/08/2020 at 09:52:44.
BEGIN options
  K33OVERK
END options

BEGIN griddata
  icelltype
    CONSTANT  1
  k
    CONSTANT       1.00000000
  k33
    CONSTANT       1.00000000
END griddata

